ULAU15/gds_ULAU15.dss
New Loadshape.MyIrrad npts=24 interval=1 mult=[0 0 0 0 0 0 0.03 0.18 0.44 0.7 0.9 0.98 1 0.94 0.8 0.6 0.35 0.14 0.016 0 0 0 0 0] 
New Tshape.MyTemp npts=24 interval=1 temp=[21.5 21 20.6 20.2 19.8 19.5 19.2 20.2 25.5 34.3 42.6 49.3 53.6 55.1 54.4 51.3 45.6 38.4 31.1 25.7 24.0 23.2 22.5 22] 
New XYCurve.MyPvsT npts=4 xarray=[0 25 75 100] yarray=[1.2 1.0 0.8 0.6] 
New XYCurve.MyEff npts=4 xarray=[0.1 0.2 0.4 1.0] yarray=[0.86 0.90 0.93 0.97] 

New PVSystem.MT131 bus1=166935493.1.2.3.4 phases=3 conn=delta kv=13.8 kva=76.2 pf=1 irrad=0.84 pmpp=76.2 temperature=25 %cutin=0.1 %cutout=0.1 effcurve=MyEff p-tcurve=MyPvsT Daily=MyIrrad TDaily=MyTemp 

New PVSystem.BT2169 bus1=1004312886.1.4 phases=1 conn=wye kv=0.127 kva=15.24 pf=1 irrad=0.84 pmpp=15.24 temperature=25 %cutin=0.1 %cutout=0.1 effcurve=MyEff p-tcurve=MyPvsT Daily=MyIrrad TDaily=MyTemp 
New PVSystem.BT2199 bus1=1003239765.1.2.3.4 phases=3 conn=delta kv=0.22 kva=45.72 pf=1 irrad=0.84 pmpp=45.72 temperature=25 %cutin=0.1 %cutout=0.1 effcurve=MyEff p-tcurve=MyPvsT Daily=MyIrrad TDaily=MyTemp 
New PVSystem.BT2200 bus1=1010656555.1.2.4 phases=1 conn=delta kv=0.24 kva=10.8 pf=1 irrad=0.84 pmpp=10.8 temperature=25 %cutin=0.1 %cutout=0.1 effcurve=MyEff p-tcurve=MyPvsT Daily=MyIrrad TDaily=MyTemp 
New PVSystem.BT4188 bus1=1003371421.3.4 phases=1 conn=wye kv=0.127 kva=24.003 pf=1 irrad=0.84 pmpp=24.003 temperature=25 %cutin=0.1 %cutout=0.1 effcurve=MyEff p-tcurve=MyPvsT Daily=MyIrrad TDaily=MyTemp 
New PVSystem.BT91668 bus1=1004656222.1.2.3.4 phases=3 conn=delta kv=0.22 kva=22.86 pf=1 irrad=0.84 pmpp=22.86 temperature=25 %cutin=0.1 %cutout=0.1 effcurve=MyEff p-tcurve=MyPvsT Daily=MyIrrad TDaily=MyTemp 
New PVSystem.BT91671 bus1=1004487956.1.2.4 phases=1 conn=delta kv=0.22 kva=22.86 pf=1 irrad=0.84 pmpp=22.86 temperature=25 %cutin=0.1 %cutout=0.1 effcurve=MyEff p-tcurve=MyPvsT Daily=MyIrrad TDaily=MyTemp 
New PVSystem.BT91672 bus1=1004971152.1.4 phases=1 conn=wye kv=0.127 kva=24.003 pf=1 irrad=0.84 pmpp=24.003 temperature=25 %cutin=0.1 %cutout=0.1 effcurve=MyEff p-tcurve=MyPvsT Daily=MyIrrad TDaily=MyTemp 
New PVSystem.BT91673 bus1=1004665210.1.2.4 phases=1 conn=delta kv=0.22 kva=22.86 pf=1 irrad=0.84 pmpp=22.86 temperature=25 %cutin=0.1 %cutout=0.1 effcurve=MyEff p-tcurve=MyPvsT Daily=MyIrrad TDaily=MyTemp 
New PVSystem.BT91674 bus1=1010160703.1.2.3.4 phases=3 conn=delta kv=0.22 kva=22.86 pf=1 irrad=0.84 pmpp=22.86 temperature=25 %cutin=0.1 %cutout=0.1 effcurve=MyEff p-tcurve=MyPvsT Daily=MyIrrad TDaily=MyTemp 
New PVSystem.BT91675 bus1=1004922047.2.3.4 phases=1 conn=delta kv=0.22 kva=22.86 pf=1 irrad=0.84 pmpp=22.86 temperature=25 %cutin=0.1 %cutout=0.1 effcurve=MyEff p-tcurve=MyPvsT Daily=MyIrrad TDaily=MyTemp 
New PVSystem.BT91684 bus1=1005295749.1.4 phases=1 conn=wye kv=0.127 kva=22.86 pf=1 irrad=0.84 pmpp=22.86 temperature=25 %cutin=0.1 %cutout=0.1 effcurve=MyEff p-tcurve=MyPvsT Daily=MyIrrad TDaily=MyTemp 
New PVSystem.BT91686 bus1=1011370470.1.2.3.4 phases=3 conn=delta kv=0.22 kva=26.67 pf=1 irrad=0.84 pmpp=26.67 temperature=25 %cutin=0.1 %cutout=0.1 effcurve=MyEff p-tcurve=MyPvsT Daily=MyIrrad TDaily=MyTemp 
New PVSystem.BT91689 bus1=1005064259.2.3.4 phases=1 conn=delta kv=0.22 kva=22.86 pf=1 irrad=0.84 pmpp=22.86 temperature=25 %cutin=0.1 %cutout=0.1 effcurve=MyEff p-tcurve=MyPvsT Daily=MyIrrad TDaily=MyTemp 
New PVSystem.BT91706 bus1=1011466903.1.2.4 phases=1 conn=delta kv=0.24 kva=12.0 pf=1 irrad=0.84 pmpp=12.0 temperature=25 %cutin=0.1 %cutout=0.1 effcurve=MyEff p-tcurve=MyPvsT Daily=MyIrrad TDaily=MyTemp 
New PVSystem.BT91738 bus1=1005443806.3.1.4 phases=1 conn=delta kv=0.22 kva=22.86 pf=1 irrad=0.84 pmpp=22.86 temperature=25 %cutin=0.1 %cutout=0.1 effcurve=MyEff p-tcurve=MyPvsT Daily=MyIrrad TDaily=MyTemp 
New PVSystem.BT91744 bus1=1011543725.1.2.4 phases=1 conn=delta kv=0.24 kva=7.2 pf=1 irrad=0.84 pmpp=7.2 temperature=25 %cutin=0.1 %cutout=0.1 effcurve=MyEff p-tcurve=MyPvsT Daily=MyIrrad TDaily=MyTemp 
New PVSystem.BT91748 bus1=1005448055.1.2.4 phases=1 conn=delta kv=0.22 kva=15.24 pf=1 irrad=0.84 pmpp=15.24 temperature=25 %cutin=0.1 %cutout=0.1 effcurve=MyEff p-tcurve=MyPvsT Daily=MyIrrad TDaily=MyTemp 
New PVSystem.BT94264 bus1=1004874251.3.1.4 phases=1 conn=delta kv=0.22 kva=24.003 pf=1 irrad=0.84 pmpp=24.003 temperature=25 %cutin=0.1 %cutout=0.1 effcurve=MyEff p-tcurve=MyPvsT Daily=MyIrrad TDaily=MyTemp 
New PVSystem.BT95498 bus1=1004516670.2.3.4 phases=1 conn=delta kv=0.22 kva=22.86 pf=1 irrad=0.84 pmpp=22.86 temperature=25 %cutin=0.1 %cutout=0.1 effcurve=MyEff p-tcurve=MyPvsT Daily=MyIrrad TDaily=MyTemp 
New PVSystem.BT95514 bus1=1010214918.1.2.4 phases=1 conn=delta kv=0.22 kva=22.86 pf=1 irrad=0.84 pmpp=22.86 temperature=25 %cutin=0.1 %cutout=0.1 effcurve=MyEff p-tcurve=MyPvsT Daily=MyIrrad TDaily=MyTemp 
New PVSystem.BT95515 bus1=1002447638.1.2.4 phases=1 conn=delta kv=0.22 kva=22.86 pf=1 irrad=0.84 pmpp=22.86 temperature=25 %cutin=0.1 %cutout=0.1 effcurve=MyEff p-tcurve=MyPvsT Daily=MyIrrad TDaily=MyTemp 
New PVSystem.BT95530 bus1=1002446140.2.3.4 phases=1 conn=delta kv=0.22 kva=24.003 pf=1 irrad=0.84 pmpp=24.003 temperature=25 %cutin=0.1 %cutout=0.1 effcurve=MyEff p-tcurve=MyPvsT Daily=MyIrrad TDaily=MyTemp 
New PVSystem.BT95531 bus1=1002444859.3.1.4 phases=1 conn=delta kv=0.22 kva=15.24 pf=1 irrad=0.84 pmpp=15.24 temperature=25 %cutin=0.1 %cutout=0.1 effcurve=MyEff p-tcurve=MyPvsT Daily=MyIrrad TDaily=MyTemp 
New PVSystem.BT95539 bus1=1002444152.1.2.3.4 phases=3 conn=delta kv=0.22 kva=22.86 pf=1 irrad=0.84 pmpp=22.86 temperature=25 %cutin=0.1 %cutout=0.1 effcurve=MyEff p-tcurve=MyPvsT Daily=MyIrrad TDaily=MyTemp 
New PVSystem.BT95549 bus1=1005058960.1.2.4 phases=1 conn=delta kv=0.22 kva=22.86 pf=1 irrad=0.84 pmpp=22.86 temperature=25 %cutin=0.1 %cutout=0.1 effcurve=MyEff p-tcurve=MyPvsT Daily=MyIrrad TDaily=MyTemp 
New PVSystem.BT95569 bus1=1002444894.2.3.4 phases=1 conn=delta kv=0.22 kva=24.003 pf=1 irrad=0.84 pmpp=24.003 temperature=25 %cutin=0.1 %cutout=0.1 effcurve=MyEff p-tcurve=MyPvsT Daily=MyIrrad TDaily=MyTemp 
New PVSystem.BT95571 bus1=1004515991.1.2.4 phases=1 conn=delta kv=0.22 kva=22.86 pf=1 irrad=0.84 pmpp=22.86 temperature=25 %cutin=0.1 %cutout=0.1 effcurve=MyEff p-tcurve=MyPvsT Daily=MyIrrad TDaily=MyTemp 
New PVSystem.BT95573 bus1=1002448093.2.3.4 phases=1 conn=delta kv=0.22 kva=22.86 pf=1 irrad=0.84 pmpp=22.86 temperature=25 %cutin=0.1 %cutout=0.1 effcurve=MyEff p-tcurve=MyPvsT Daily=MyIrrad TDaily=MyTemp 
New PVSystem.BT95579 bus1=1003371372.1.2.4 phases=1 conn=delta kv=0.22 kva=22.86 pf=1 irrad=0.84 pmpp=22.86 temperature=25 %cutin=0.1 %cutout=0.1 effcurve=MyEff p-tcurve=MyPvsT Daily=MyIrrad TDaily=MyTemp 
New PVSystem.BT95590 bus1=1002445251.2.3.4 phases=1 conn=delta kv=0.22 kva=24.003 pf=1 irrad=0.84 pmpp=24.003 temperature=25 %cutin=0.1 %cutout=0.1 effcurve=MyEff p-tcurve=MyPvsT Daily=MyIrrad TDaily=MyTemp 
New PVSystem.BT95597 bus1=1002446966.1.2.4 phases=1 conn=delta kv=0.22 kva=24.003 pf=1 irrad=0.84 pmpp=24.003 temperature=25 %cutin=0.1 %cutout=0.1 effcurve=MyEff p-tcurve=MyPvsT Daily=MyIrrad TDaily=MyTemp 
New PVSystem.BT95658 bus1=1002444257.2.3.4 phases=1 conn=delta kv=0.22 kva=24.003 pf=1 irrad=0.84 pmpp=24.003 temperature=25 %cutin=0.1 %cutout=0.1 effcurve=MyEff p-tcurve=MyPvsT Daily=MyIrrad TDaily=MyTemp 
New PVSystem.BT95683 bus1=1005207822.3.4 phases=1 conn=wye kv=0.127 kva=24.003 pf=1 irrad=0.84 pmpp=24.003 temperature=25 %cutin=0.1 %cutout=0.1 effcurve=MyEff p-tcurve=MyPvsT Daily=MyIrrad TDaily=MyTemp 
New PVSystem.BT95700 bus1=1002449031.2.4 phases=1 conn=wye kv=0.127 kva=22.86 pf=1 irrad=0.84 pmpp=22.86 temperature=25 %cutin=0.1 %cutout=0.1 effcurve=MyEff p-tcurve=MyPvsT Daily=MyIrrad TDaily=MyTemp 
New PVSystem.BT95717 bus1=1004469938.2.3.4 phases=1 conn=delta kv=0.22 kva=45.72 pf=1 irrad=0.84 pmpp=45.72 temperature=25 %cutin=0.1 %cutout=0.1 effcurve=MyEff p-tcurve=MyPvsT Daily=MyIrrad TDaily=MyTemp 
New PVSystem.BT95732 bus1=1002445944.2.3.4 phases=1 conn=delta kv=0.22 kva=22.86 pf=1 irrad=0.84 pmpp=22.86 temperature=25 %cutin=0.1 %cutout=0.1 effcurve=MyEff p-tcurve=MyPvsT Daily=MyIrrad TDaily=MyTemp 
New PVSystem.BT95739 bus1=1006447669.2.3.4 phases=1 conn=delta kv=0.22 kva=22.86 pf=1 irrad=0.84 pmpp=22.86 temperature=25 %cutin=0.1 %cutout=0.1 effcurve=MyEff p-tcurve=MyPvsT Daily=MyIrrad TDaily=MyTemp 
New PVSystem.BT95777 bus1=1005005165.2.3.4 phases=1 conn=delta kv=0.22 kva=22.86 pf=1 irrad=0.84 pmpp=22.86 temperature=25 %cutin=0.1 %cutout=0.1 effcurve=MyEff p-tcurve=MyPvsT Daily=MyIrrad TDaily=MyTemp 
New PVSystem.BT95784 bus1=1002448968.3.1.4 phases=1 conn=delta kv=0.22 kva=26.67 pf=1 irrad=0.84 pmpp=26.67 temperature=25 %cutin=0.1 %cutout=0.1 effcurve=MyEff p-tcurve=MyPvsT Daily=MyIrrad TDaily=MyTemp 
New PVSystem.BT95831 bus1=1004781907.1.2.4 phases=1 conn=delta kv=0.22 kva=22.86 pf=1 irrad=0.84 pmpp=22.86 temperature=25 %cutin=0.1 %cutout=0.1 effcurve=MyEff p-tcurve=MyPvsT Daily=MyIrrad TDaily=MyTemp 
New PVSystem.BT95836 bus1=1004848841.1.4 phases=1 conn=wye kv=0.127 kva=24.003 pf=1 irrad=0.84 pmpp=24.003 temperature=25 %cutin=0.1 %cutout=0.1 effcurve=MyEff p-tcurve=MyPvsT Daily=MyIrrad TDaily=MyTemp 
New PVSystem.BT95867 bus1=1005162056.1.2.4 phases=1 conn=delta kv=0.22 kva=38.1 pf=1 irrad=0.84 pmpp=38.1 temperature=25 %cutin=0.1 %cutout=0.1 effcurve=MyEff p-tcurve=MyPvsT Daily=MyIrrad TDaily=MyTemp 
New PVSystem.BT95873 bus1=1002446007.2.3.4 phases=1 conn=delta kv=0.22 kva=22.86 pf=1 irrad=0.84 pmpp=22.86 temperature=25 %cutin=0.1 %cutout=0.1 effcurve=MyEff p-tcurve=MyPvsT Daily=MyIrrad TDaily=MyTemp 
New PVSystem.BT95878 bus1=1002445167.2.3.4 phases=1 conn=delta kv=0.22 kva=22.86 pf=1 irrad=0.84 pmpp=22.86 temperature=25 %cutin=0.1 %cutout=0.1 effcurve=MyEff p-tcurve=MyPvsT Daily=MyIrrad TDaily=MyTemp 
New PVSystem.BT98665 bus1=1005110158.1.2.4 phases=1 conn=delta kv=0.24 kva=24.0 pf=1 irrad=0.84 pmpp=24.0 temperature=25 %cutin=0.1 %cutout=0.1 effcurve=MyEff p-tcurve=MyPvsT Daily=MyIrrad TDaily=MyTemp 
New PVSystem.BT98679 bus1=1011358262.1.2.4 phases=1 conn=delta kv=0.24 kva=7.56 pf=1 irrad=0.84 pmpp=7.56 temperature=25 %cutin=0.1 %cutout=0.1 effcurve=MyEff p-tcurve=MyPvsT Daily=MyIrrad TDaily=MyTemp 
New PVSystem.BT98683 bus1=1010618442.1.2.3.4 phases=3 conn=delta kv=0.22 kva=22.86 pf=1 irrad=0.84 pmpp=22.86 temperature=25 %cutin=0.1 %cutout=0.1 effcurve=MyEff p-tcurve=MyPvsT Daily=MyIrrad TDaily=MyTemp 
New PVSystem.BT98698 bus1=1004816340.1.2.4 phases=1 conn=delta kv=0.24 kva=7.2 pf=1 irrad=0.84 pmpp=7.2 temperature=25 %cutin=0.1 %cutout=0.1 effcurve=MyEff p-tcurve=MyPvsT Daily=MyIrrad TDaily=MyTemp 
New PVSystem.BT98708 bus1=1003242460.1.2.4 phases=1 conn=delta kv=0.22 kva=22.86 pf=1 irrad=0.84 pmpp=22.86 temperature=25 %cutin=0.1 %cutout=0.1 effcurve=MyEff p-tcurve=MyPvsT Daily=MyIrrad TDaily=MyTemp 
New PVSystem.BT98710 bus1=1004793828.1.2.4 phases=1 conn=delta kv=0.24 kva=7.2 pf=1 irrad=0.84 pmpp=7.2 temperature=25 %cutin=0.1 %cutout=0.1 effcurve=MyEff p-tcurve=MyPvsT Daily=MyIrrad TDaily=MyTemp 
New PVSystem.BT98712 bus1=1003240157.1.2.4 phases=1 conn=delta kv=0.24 kva=7.2 pf=1 irrad=0.84 pmpp=7.2 temperature=25 %cutin=0.1 %cutout=0.1 effcurve=MyEff p-tcurve=MyPvsT Daily=MyIrrad TDaily=MyTemp 
New PVSystem.BT98716 bus1=1004268401.1.2.4 phases=1 conn=delta kv=0.24 kva=7.2 pf=1 irrad=0.84 pmpp=7.2 temperature=25 %cutin=0.1 %cutout=0.1 effcurve=MyEff p-tcurve=MyPvsT Daily=MyIrrad TDaily=MyTemp 
New PVSystem.BT98752 bus1=1003240598.1.2.4 phases=1 conn=delta kv=0.22 kva=24.003 pf=1 irrad=0.84 pmpp=24.003 temperature=25 %cutin=0.1 %cutout=0.1 effcurve=MyEff p-tcurve=MyPvsT Daily=MyIrrad TDaily=MyTemp 
New PVSystem.BT98794 bus1=1003240430.2.3.4 phases=1 conn=delta kv=0.22 kva=22.86 pf=1 irrad=0.84 pmpp=22.86 temperature=25 %cutin=0.1 %cutout=0.1 effcurve=MyEff p-tcurve=MyPvsT Daily=MyIrrad TDaily=MyTemp 
New PVSystem.BT98993 bus1=1004117551.3.1.4 phases=1 conn=delta kv=0.22 kva=22.86 pf=1 irrad=0.84 pmpp=22.86 temperature=25 %cutin=0.1 %cutout=0.1 effcurve=MyEff p-tcurve=MyPvsT Daily=MyIrrad TDaily=MyTemp 
New PVSystem.BT99059 bus1=1004257075.2.3.4 phases=1 conn=delta kv=0.22 kva=24.003 pf=1 irrad=0.84 pmpp=24.003 temperature=25 %cutin=0.1 %cutout=0.1 effcurve=MyEff p-tcurve=MyPvsT Daily=MyIrrad TDaily=MyTemp 
New PVSystem.BT99078 bus1=1003359115.1.4 phases=1 conn=wye kv=0.127 kva=22.86 pf=1 irrad=0.84 pmpp=22.86 temperature=25 %cutin=0.1 %cutout=0.1 effcurve=MyEff p-tcurve=MyPvsT Daily=MyIrrad TDaily=MyTemp 
New PVSystem.BT99140 bus1=1005295224.2.3.4 phases=1 conn=delta kv=0.22 kva=22.86 pf=1 irrad=0.84 pmpp=22.86 temperature=25 %cutin=0.1 %cutout=0.1 effcurve=MyEff p-tcurve=MyPvsT Daily=MyIrrad TDaily=MyTemp 
New PVSystem.BT99190 bus1=1004107408.2.3.4 phases=1 conn=delta kv=0.22 kva=24.003 pf=1 irrad=0.84 pmpp=24.003 temperature=25 %cutin=0.1 %cutout=0.1 effcurve=MyEff p-tcurve=MyPvsT Daily=MyIrrad TDaily=MyTemp 
New PVSystem.BT99420 bus1=1004316533.2.4 phases=1 conn=wye kv=0.127 kva=24.003 pf=1 irrad=0.84 pmpp=24.003 temperature=25 %cutin=0.1 %cutout=0.1 effcurve=MyEff p-tcurve=MyPvsT Daily=MyIrrad TDaily=MyTemp 
New PVSystem.BT99428 bus1=1010198145.1.2.3.4 phases=3 conn=delta kv=0.22 kva=22.86 pf=1 irrad=0.84 pmpp=22.86 temperature=25 %cutin=0.1 %cutout=0.1 effcurve=MyEff p-tcurve=MyPvsT Daily=MyIrrad TDaily=MyTemp 
New PVSystem.BT99429 bus1=1010198145.1.2.3.4 phases=3 conn=delta kv=0.22 kva=22.86 pf=1 irrad=0.84 pmpp=22.86 temperature=25 %cutin=0.1 %cutout=0.1 effcurve=MyEff p-tcurve=MyPvsT Daily=MyIrrad TDaily=MyTemp 
New PVSystem.BT99430 bus1=1010198145.1.2.3.4 phases=3 conn=delta kv=0.22 kva=22.86 pf=1 irrad=0.84 pmpp=22.86 temperature=25 %cutin=0.1 %cutout=0.1 effcurve=MyEff p-tcurve=MyPvsT Daily=MyIrrad TDaily=MyTemp 
New PVSystem.BT99431 bus1=1010198145.1.2.3.4 phases=3 conn=delta kv=0.22 kva=22.86 pf=1 irrad=0.84 pmpp=22.86 temperature=25 %cutin=0.1 %cutout=0.1 effcurve=MyEff p-tcurve=MyPvsT Daily=MyIrrad TDaily=MyTemp 
New PVSystem.BT99443 bus1=1006692242.1.2.4 phases=1 conn=delta kv=0.22 kva=38.1 pf=1 irrad=0.84 pmpp=38.1 temperature=25 %cutin=0.1 %cutout=0.1 effcurve=MyEff p-tcurve=MyPvsT Daily=MyIrrad TDaily=MyTemp 
New PVSystem.BT99466 bus1=1010198145.1.2.3.4 phases=3 conn=delta kv=0.22 kva=22.86 pf=1 irrad=0.84 pmpp=22.86 temperature=25 %cutin=0.1 %cutout=0.1 effcurve=MyEff p-tcurve=MyPvsT Daily=MyIrrad TDaily=MyTemp 
New PVSystem.BT99485 bus1=1004317639.3.4 phases=1 conn=wye kv=0.127 kva=24.003 pf=1 irrad=0.84 pmpp=24.003 temperature=25 %cutin=0.1 %cutout=0.1 effcurve=MyEff p-tcurve=MyPvsT Daily=MyIrrad TDaily=MyTemp 
New PVSystem.BT99499 bus1=1004312690.1.2.4 phases=1 conn=delta kv=0.22 kva=22.86 pf=1 irrad=0.84 pmpp=22.86 temperature=25 %cutin=0.1 %cutout=0.1 effcurve=MyEff p-tcurve=MyPvsT Daily=MyIrrad TDaily=MyTemp 
New PVSystem.BT99500 bus1=1011002135.1.2.4 phases=1 conn=delta kv=0.22 kva=24.003 pf=1 irrad=0.84 pmpp=24.003 temperature=25 %cutin=0.1 %cutout=0.1 effcurve=MyEff p-tcurve=MyPvsT Daily=MyIrrad TDaily=MyTemp 
New PVSystem.BT99503 bus1=1004378007.2.3.4 phases=1 conn=delta kv=0.22 kva=22.86 pf=1 irrad=0.84 pmpp=22.86 temperature=25 %cutin=0.1 %cutout=0.1 effcurve=MyEff p-tcurve=MyPvsT Daily=MyIrrad TDaily=MyTemp 
New PVSystem.BT99505 bus1=1004179536.3.4 phases=1 conn=wye kv=0.127 kva=24.003 pf=1 irrad=0.84 pmpp=24.003 temperature=25 %cutin=0.1 %cutout=0.1 effcurve=MyEff p-tcurve=MyPvsT Daily=MyIrrad TDaily=MyTemp 
New PVSystem.BT99506 bus1=1004317604.1.2.4 phases=1 conn=delta kv=0.22 kva=22.86 pf=1 irrad=0.84 pmpp=22.86 temperature=25 %cutin=0.1 %cutout=0.1 effcurve=MyEff p-tcurve=MyPvsT Daily=MyIrrad TDaily=MyTemp 
New PVSystem.BT99507 bus1=1005427944.2.3.4 phases=1 conn=delta kv=0.22 kva=22.86 pf=1 irrad=0.84 pmpp=22.86 temperature=25 %cutin=0.1 %cutout=0.1 effcurve=MyEff p-tcurve=MyPvsT Daily=MyIrrad TDaily=MyTemp 
New PVSystem.BT99508 bus1=1005306928.2.3.4 phases=1 conn=delta kv=0.22 kva=22.86 pf=1 irrad=0.84 pmpp=22.86 temperature=25 %cutin=0.1 %cutout=0.1 effcurve=MyEff p-tcurve=MyPvsT Daily=MyIrrad TDaily=MyTemp 
New PVSystem.BT99518 bus1=1004308357.3.4 phases=1 conn=wye kv=0.127 kva=22.86 pf=1 irrad=0.84 pmpp=22.86 temperature=25 %cutin=0.1 %cutout=0.1 effcurve=MyEff p-tcurve=MyPvsT Daily=MyIrrad TDaily=MyTemp 
New PVSystem.BT99535 bus1=1004974995.2.3.4 phases=1 conn=delta kv=0.22 kva=15.24 pf=1 irrad=0.84 pmpp=15.24 temperature=25 %cutin=0.1 %cutout=0.1 effcurve=MyEff p-tcurve=MyPvsT Daily=MyIrrad TDaily=MyTemp 
New PVSystem.BT99539 bus1=1004347438.3.1.4 phases=1 conn=delta kv=0.22 kva=22.86 pf=1 irrad=0.84 pmpp=22.86 temperature=25 %cutin=0.1 %cutout=0.1 effcurve=MyEff p-tcurve=MyPvsT Daily=MyIrrad TDaily=MyTemp 
New PVSystem.BT99544 bus1=1003371316.1.2.3.4 phases=3 conn=delta kv=0.22 kva=15.24 pf=1 irrad=0.84 pmpp=15.24 temperature=25 %cutin=0.1 %cutout=0.1 effcurve=MyEff p-tcurve=MyPvsT Daily=MyIrrad TDaily=MyTemp 
New PVSystem.BT99545 bus1=1011033754.3.1.4 phases=1 conn=delta kv=0.22 kva=24.003 pf=1 irrad=0.84 pmpp=24.003 temperature=25 %cutin=0.1 %cutout=0.1 effcurve=MyEff p-tcurve=MyPvsT Daily=MyIrrad TDaily=MyTemp 
New PVSystem.BT99548 bus1=1005286313.3.1.4 phases=1 conn=delta kv=0.22 kva=22.86 pf=1 irrad=0.84 pmpp=22.86 temperature=25 %cutin=0.1 %cutout=0.1 effcurve=MyEff p-tcurve=MyPvsT Daily=MyIrrad TDaily=MyTemp 
New PVSystem.BT99549 bus1=1003371288.1.2.4 phases=1 conn=delta kv=0.22 kva=24.003 pf=1 irrad=0.84 pmpp=24.003 temperature=25 %cutin=0.1 %cutout=0.1 effcurve=MyEff p-tcurve=MyPvsT Daily=MyIrrad TDaily=MyTemp 
New PVSystem.BT99554 bus1=1004513170.2.3.4 phases=1 conn=delta kv=0.22 kva=22.86 pf=1 irrad=0.84 pmpp=22.86 temperature=25 %cutin=0.1 %cutout=0.1 effcurve=MyEff p-tcurve=MyPvsT Daily=MyIrrad TDaily=MyTemp 
New PVSystem.BT99561 bus1=1006829813.2.4 phases=1 conn=wye kv=0.127 kva=24.003 pf=1 irrad=0.84 pmpp=24.003 temperature=25 %cutin=0.1 %cutout=0.1 effcurve=MyEff p-tcurve=MyPvsT Daily=MyIrrad TDaily=MyTemp 
New PVSystem.BT99563 bus1=1011099169.1.2.3.4 phases=3 conn=delta kv=0.22 kva=76.2 pf=1 irrad=0.84 pmpp=76.2 temperature=25 %cutin=0.1 %cutout=0.1 effcurve=MyEff p-tcurve=MyPvsT Daily=MyIrrad TDaily=MyTemp 
New PVSystem.BT99567 bus1=1011150994.2.3.4 phases=1 conn=delta kv=0.22 kva=24.003 pf=1 irrad=0.84 pmpp=24.003 temperature=25 %cutin=0.1 %cutout=0.1 effcurve=MyEff p-tcurve=MyPvsT Daily=MyIrrad TDaily=MyTemp 
New PVSystem.BT99568 bus1=1005064581.1.2.4 phases=1 conn=delta kv=0.22 kva=22.86 pf=1 irrad=0.84 pmpp=22.86 temperature=25 %cutin=0.1 %cutout=0.1 effcurve=MyEff p-tcurve=MyPvsT Daily=MyIrrad TDaily=MyTemp 
New PVSystem.BT99573 bus1=1004329707.1.4 phases=1 conn=wye kv=0.127 kva=22.86 pf=1 irrad=0.84 pmpp=22.86 temperature=25 %cutin=0.1 %cutout=0.1 effcurve=MyEff p-tcurve=MyPvsT Daily=MyIrrad TDaily=MyTemp 
New PVSystem.BT99574 bus1=1005098622.3.1.4 phases=1 conn=delta kv=0.22 kva=22.86 pf=1 irrad=0.84 pmpp=22.86 temperature=25 %cutin=0.1 %cutout=0.1 effcurve=MyEff p-tcurve=MyPvsT Daily=MyIrrad TDaily=MyTemp 
New PVSystem.BT99575 bus1=1004241171.2.3.4 phases=1 conn=delta kv=0.22 kva=22.86 pf=1 irrad=0.84 pmpp=22.86 temperature=25 %cutin=0.1 %cutout=0.1 effcurve=MyEff p-tcurve=MyPvsT Daily=MyIrrad TDaily=MyTemp 
New PVSystem.BT99586 bus1=1006538249.2.3.4 phases=1 conn=delta kv=0.22 kva=22.86 pf=1 irrad=0.84 pmpp=22.86 temperature=25 %cutin=0.1 %cutout=0.1 effcurve=MyEff p-tcurve=MyPvsT Daily=MyIrrad TDaily=MyTemp 
New PVSystem.BT99593 bus1=1010198145.1.2.3.4 phases=3 conn=delta kv=0.22 kva=22.86 pf=1 irrad=0.84 pmpp=22.86 temperature=25 %cutin=0.1 %cutout=0.1 effcurve=MyEff p-tcurve=MyPvsT Daily=MyIrrad TDaily=MyTemp 
New PVSystem.BT99612 bus1=1005479702.2.3.4 phases=1 conn=delta kv=0.22 kva=22.86 pf=1 irrad=0.84 pmpp=22.86 temperature=25 %cutin=0.1 %cutout=0.1 effcurve=MyEff p-tcurve=MyPvsT Daily=MyIrrad TDaily=MyTemp 
New PVSystem.BT99613 bus1=1005295077.3.1.4 phases=1 conn=delta kv=0.22 kva=22.86 pf=1 irrad=0.84 pmpp=22.86 temperature=25 %cutin=0.1 %cutout=0.1 effcurve=MyEff p-tcurve=MyPvsT Daily=MyIrrad TDaily=MyTemp 
New PVSystem.BT99621 bus1=1005345183.2.3.4 phases=1 conn=delta kv=0.22 kva=22.86 pf=1 irrad=0.84 pmpp=22.86 temperature=25 %cutin=0.1 %cutout=0.1 effcurve=MyEff p-tcurve=MyPvsT Daily=MyIrrad TDaily=MyTemp 
New PVSystem.BT99622 bus1=1004308917.2.4 phases=1 conn=wye kv=0.127 kva=24.003 pf=1 irrad=0.84 pmpp=24.003 temperature=25 %cutin=0.1 %cutout=0.1 effcurve=MyEff p-tcurve=MyPvsT Daily=MyIrrad TDaily=MyTemp 
New PVSystem.BT99624 bus1=1005022007.3.1.4 phases=1 conn=delta kv=0.22 kva=22.86 pf=1 irrad=0.84 pmpp=22.86 temperature=25 %cutin=0.1 %cutout=0.1 effcurve=MyEff p-tcurve=MyPvsT Daily=MyIrrad TDaily=MyTemp 
New PVSystem.BT99629 bus1=1010283266.1.2.4 phases=1 conn=delta kv=0.22 kva=22.86 pf=1 irrad=0.84 pmpp=22.86 temperature=25 %cutin=0.1 %cutout=0.1 effcurve=MyEff p-tcurve=MyPvsT Daily=MyIrrad TDaily=MyTemp 
New PVSystem.BT99630 bus1=1004317583.1.2.4 phases=1 conn=delta kv=0.22 kva=22.86 pf=1 irrad=0.84 pmpp=22.86 temperature=25 %cutin=0.1 %cutout=0.1 effcurve=MyEff p-tcurve=MyPvsT Daily=MyIrrad TDaily=MyTemp 
New PVSystem.BT99632 bus1=1004318087.3.4 phases=1 conn=wye kv=0.127 kva=24.003 pf=1 irrad=0.84 pmpp=24.003 temperature=25 %cutin=0.1 %cutout=0.1 effcurve=MyEff p-tcurve=MyPvsT Daily=MyIrrad TDaily=MyTemp 
New PVSystem.BT99647 bus1=1005158514.2.3.4 phases=1 conn=delta kv=0.22 kva=22.86 pf=1 irrad=0.84 pmpp=22.86 temperature=25 %cutin=0.1 %cutout=0.1 effcurve=MyEff p-tcurve=MyPvsT Daily=MyIrrad TDaily=MyTemp 
New PVSystem.BT99649 bus1=1005270710.3.1.4 phases=1 conn=delta kv=0.22 kva=22.86 pf=1 irrad=0.84 pmpp=22.86 temperature=25 %cutin=0.1 %cutout=0.1 effcurve=MyEff p-tcurve=MyPvsT Daily=MyIrrad TDaily=MyTemp 
New PVSystem.BT99650 bus1=1005220695.1.2.4 phases=1 conn=delta kv=0.22 kva=22.86 pf=1 irrad=0.84 pmpp=22.86 temperature=25 %cutin=0.1 %cutout=0.1 effcurve=MyEff p-tcurve=MyPvsT Daily=MyIrrad TDaily=MyTemp 
New PVSystem.BT99652 bus1=1004630238.3.4 phases=1 conn=wye kv=0.127 kva=22.86 pf=1 irrad=0.84 pmpp=22.86 temperature=25 %cutin=0.1 %cutout=0.1 effcurve=MyEff p-tcurve=MyPvsT Daily=MyIrrad TDaily=MyTemp 
New PVSystem.BT99653 bus1=1005305003.1.2.4 phases=1 conn=delta kv=0.22 kva=22.86 pf=1 irrad=0.84 pmpp=22.86 temperature=25 %cutin=0.1 %cutout=0.1 effcurve=MyEff p-tcurve=MyPvsT Daily=MyIrrad TDaily=MyTemp 
New PVSystem.BT99656 bus1=1010375697.1.2.3.4 phases=3 conn=delta kv=0.22 kva=22.86 pf=1 irrad=0.84 pmpp=22.86 temperature=25 %cutin=0.1 %cutout=0.1 effcurve=MyEff p-tcurve=MyPvsT Daily=MyIrrad TDaily=MyTemp 
New PVSystem.BT99657 bus1=1010775042.2.3.4 phases=1 conn=delta kv=0.22 kva=22.86 pf=1 irrad=0.84 pmpp=22.86 temperature=25 %cutin=0.1 %cutout=0.1 effcurve=MyEff p-tcurve=MyPvsT Daily=MyIrrad TDaily=MyTemp 
New PVSystem.BT99658 bus1=1005362144.1.2.4 phases=1 conn=delta kv=0.22 kva=22.86 pf=1 irrad=0.84 pmpp=22.86 temperature=25 %cutin=0.1 %cutout=0.1 effcurve=MyEff p-tcurve=MyPvsT Daily=MyIrrad TDaily=MyTemp 
New PVSystem.BT99659 bus1=1010482041.1.2.4 phases=1 conn=delta kv=0.22 kva=22.86 pf=1 irrad=0.84 pmpp=22.86 temperature=25 %cutin=0.1 %cutout=0.1 effcurve=MyEff p-tcurve=MyPvsT Daily=MyIrrad TDaily=MyTemp 
New PVSystem.BT99660 bus1=1011058916.1.2.4 phases=1 conn=delta kv=0.22 kva=24.003 pf=1 irrad=0.84 pmpp=24.003 temperature=25 %cutin=0.1 %cutout=0.1 effcurve=MyEff p-tcurve=MyPvsT Daily=MyIrrad TDaily=MyTemp 
New PVSystem.BT99661 bus1=1005335544.3.1.4 phases=1 conn=delta kv=0.22 kva=22.86 pf=1 irrad=0.84 pmpp=22.86 temperature=25 %cutin=0.1 %cutout=0.1 effcurve=MyEff p-tcurve=MyPvsT Daily=MyIrrad TDaily=MyTemp 
New PVSystem.BT99663 bus1=1005369886.1.2.4 phases=1 conn=delta kv=0.22 kva=22.86 pf=1 irrad=0.84 pmpp=22.86 temperature=25 %cutin=0.1 %cutout=0.1 effcurve=MyEff p-tcurve=MyPvsT Daily=MyIrrad TDaily=MyTemp 
New PVSystem.BT99664 bus1=1010257971.1.2.4 phases=1 conn=delta kv=0.22 kva=22.86 pf=1 irrad=0.84 pmpp=22.86 temperature=25 %cutin=0.1 %cutout=0.1 effcurve=MyEff p-tcurve=MyPvsT Daily=MyIrrad TDaily=MyTemp 
New PVSystem.BT99665 bus1=1005198533.3.1.4 phases=1 conn=delta kv=0.22 kva=22.86 pf=1 irrad=0.84 pmpp=22.86 temperature=25 %cutin=0.1 %cutout=0.1 effcurve=MyEff p-tcurve=MyPvsT Daily=MyIrrad TDaily=MyTemp 
New PVSystem.BT99667 bus1=1010419148.1.2.4 phases=1 conn=delta kv=0.22 kva=22.86 pf=1 irrad=0.84 pmpp=22.86 temperature=25 %cutin=0.1 %cutout=0.1 effcurve=MyEff p-tcurve=MyPvsT Daily=MyIrrad TDaily=MyTemp 
New PVSystem.BT99668 bus1=1005050602.1.2.4 phases=1 conn=delta kv=0.22 kva=22.86 pf=1 irrad=0.84 pmpp=22.86 temperature=25 %cutin=0.1 %cutout=0.1 effcurve=MyEff p-tcurve=MyPvsT Daily=MyIrrad TDaily=MyTemp 
New PVSystem.BT99670 bus1=1005356691.1.2.4 phases=1 conn=delta kv=0.22 kva=22.86 pf=1 irrad=0.84 pmpp=22.86 temperature=25 %cutin=0.1 %cutout=0.1 effcurve=MyEff p-tcurve=MyPvsT Daily=MyIrrad TDaily=MyTemp 
New PVSystem.BT99674 bus1=1010141851.1.2.4 phases=1 conn=delta kv=0.22 kva=22.86 pf=1 irrad=0.84 pmpp=22.86 temperature=25 %cutin=0.1 %cutout=0.1 effcurve=MyEff p-tcurve=MyPvsT Daily=MyIrrad TDaily=MyTemp 
New PVSystem.BT99677 bus1=1005267000.2.3.4 phases=1 conn=delta kv=0.22 kva=22.86 pf=1 irrad=0.84 pmpp=22.86 temperature=25 %cutin=0.1 %cutout=0.1 effcurve=MyEff p-tcurve=MyPvsT Daily=MyIrrad TDaily=MyTemp 
New PVSystem.BT99678 bus1=1004549500.1.2.4 phases=1 conn=delta kv=0.22 kva=22.86 pf=1 irrad=0.84 pmpp=22.86 temperature=25 %cutin=0.1 %cutout=0.1 effcurve=MyEff p-tcurve=MyPvsT Daily=MyIrrad TDaily=MyTemp 
New PVSystem.BT99679 bus1=1005252594.1.2.4 phases=1 conn=delta kv=0.22 kva=22.86 pf=1 irrad=0.84 pmpp=22.86 temperature=25 %cutin=0.1 %cutout=0.1 effcurve=MyEff p-tcurve=MyPvsT Daily=MyIrrad TDaily=MyTemp 
New PVSystem.BT99681 bus1=1010713554.1.2.4 phases=1 conn=delta kv=0.22 kva=22.86 pf=1 irrad=0.84 pmpp=22.86 temperature=25 %cutin=0.1 %cutout=0.1 effcurve=MyEff p-tcurve=MyPvsT Daily=MyIrrad TDaily=MyTemp 
New PVSystem.BT99683 bus1=1006601011.2.3.4 phases=1 conn=delta kv=0.22 kva=22.86 pf=1 irrad=0.84 pmpp=22.86 temperature=25 %cutin=0.1 %cutout=0.1 effcurve=MyEff p-tcurve=MyPvsT Daily=MyIrrad TDaily=MyTemp 
New PVSystem.BT99687 bus1=1005362018.2.3.4 phases=1 conn=delta kv=0.22 kva=22.86 pf=1 irrad=0.84 pmpp=22.86 temperature=25 %cutin=0.1 %cutout=0.1 effcurve=MyEff p-tcurve=MyPvsT Daily=MyIrrad TDaily=MyTemp 
New PVSystem.BT99688 bus1=1004232407.1.2.4 phases=1 conn=delta kv=0.22 kva=22.86 pf=1 irrad=0.84 pmpp=22.86 temperature=25 %cutin=0.1 %cutout=0.1 effcurve=MyEff p-tcurve=MyPvsT Daily=MyIrrad TDaily=MyTemp 
New PVSystem.BT99689 bus1=1010160741.1.2.3.4 phases=3 conn=delta kv=0.22 kva=24.003 pf=1 irrad=0.84 pmpp=24.003 temperature=25 %cutin=0.1 %cutout=0.1 effcurve=MyEff p-tcurve=MyPvsT Daily=MyIrrad TDaily=MyTemp 
New PVSystem.BT99690 bus1=1010818639.1.2.4 phases=1 conn=delta kv=0.22 kva=22.86 pf=1 irrad=0.84 pmpp=22.86 temperature=25 %cutin=0.1 %cutout=0.1 effcurve=MyEff p-tcurve=MyPvsT Daily=MyIrrad TDaily=MyTemp 
New PVSystem.BT99692 bus1=1005039367.3.1.4 phases=1 conn=delta kv=0.22 kva=22.86 pf=1 irrad=0.84 pmpp=22.86 temperature=25 %cutin=0.1 %cutout=0.1 effcurve=MyEff p-tcurve=MyPvsT Daily=MyIrrad TDaily=MyTemp 
New PVSystem.BT99698 bus1=1004887341.1.2.4 phases=1 conn=delta kv=0.22 kva=22.86 pf=1 irrad=0.84 pmpp=22.86 temperature=25 %cutin=0.1 %cutout=0.1 effcurve=MyEff p-tcurve=MyPvsT Daily=MyIrrad TDaily=MyTemp 
New PVSystem.BT99700 bus1=1010215872.1.2.3.4 phases=3 conn=delta kv=0.22 kva=22.86 pf=1 irrad=0.84 pmpp=22.86 temperature=25 %cutin=0.1 %cutout=0.1 effcurve=MyEff p-tcurve=MyPvsT Daily=MyIrrad TDaily=MyTemp 
New PVSystem.BT99701 bus1=1005356677.3.4 phases=1 conn=wye kv=0.127 kva=22.86 pf=1 irrad=0.84 pmpp=22.86 temperature=25 %cutin=0.1 %cutout=0.1 effcurve=MyEff p-tcurve=MyPvsT Daily=MyIrrad TDaily=MyTemp 
New PVSystem.BT99702 bus1=1010852128.1.2.3.4 phases=3 conn=delta kv=0.22 kva=24.003 pf=1 irrad=0.84 pmpp=24.003 temperature=25 %cutin=0.1 %cutout=0.1 effcurve=MyEff p-tcurve=MyPvsT Daily=MyIrrad TDaily=MyTemp 
New PVSystem.BT99703 bus1=1005090201.2.3.4 phases=1 conn=delta kv=0.22 kva=22.86 pf=1 irrad=0.84 pmpp=22.86 temperature=25 %cutin=0.1 %cutout=0.1 effcurve=MyEff p-tcurve=MyPvsT Daily=MyIrrad TDaily=MyTemp 
New PVSystem.BT99709 bus1=1005082921.2.3.4 phases=1 conn=delta kv=0.22 kva=22.86 pf=1 irrad=0.84 pmpp=22.86 temperature=25 %cutin=0.1 %cutout=0.1 effcurve=MyEff p-tcurve=MyPvsT Daily=MyIrrad TDaily=MyTemp 
New PVSystem.BT99710 bus1=1010106013.3.1.4 phases=1 conn=delta kv=0.22 kva=22.86 pf=1 irrad=0.84 pmpp=22.86 temperature=25 %cutin=0.1 %cutout=0.1 effcurve=MyEff p-tcurve=MyPvsT Daily=MyIrrad TDaily=MyTemp 
New PVSystem.BT99711 bus1=1011381347.1.2.4 phases=1 conn=delta kv=0.22 kva=24.003 pf=1 irrad=0.84 pmpp=24.003 temperature=25 %cutin=0.1 %cutout=0.1 effcurve=MyEff p-tcurve=MyPvsT Daily=MyIrrad TDaily=MyTemp 
New PVSystem.BT99712 bus1=1004780864.1.4 phases=1 conn=wye kv=0.127 kva=24.003 pf=1 irrad=0.84 pmpp=24.003 temperature=25 %cutin=0.1 %cutout=0.1 effcurve=MyEff p-tcurve=MyPvsT Daily=MyIrrad TDaily=MyTemp 
New PVSystem.BT99713 bus1=1004795648.2.3.4 phases=1 conn=delta kv=0.22 kva=22.86 pf=1 irrad=0.84 pmpp=22.86 temperature=25 %cutin=0.1 %cutout=0.1 effcurve=MyEff p-tcurve=MyPvsT Daily=MyIrrad TDaily=MyTemp 
New PVSystem.BT99714 bus1=1004894390.3.1.4 phases=1 conn=delta kv=0.22 kva=22.86 pf=1 irrad=0.84 pmpp=22.86 temperature=25 %cutin=0.1 %cutout=0.1 effcurve=MyEff p-tcurve=MyPvsT Daily=MyIrrad TDaily=MyTemp 
New PVSystem.BT99715 bus1=1010996029.1.2.4 phases=1 conn=delta kv=0.22 kva=22.86 pf=1 irrad=0.84 pmpp=22.86 temperature=25 %cutin=0.1 %cutout=0.1 effcurve=MyEff p-tcurve=MyPvsT Daily=MyIrrad TDaily=MyTemp 
New PVSystem.BT99716 bus1=1005420475.2.3.4 phases=1 conn=delta kv=0.22 kva=24.003 pf=1 irrad=0.84 pmpp=24.003 temperature=25 %cutin=0.1 %cutout=0.1 effcurve=MyEff p-tcurve=MyPvsT Daily=MyIrrad TDaily=MyTemp 
New PVSystem.BT99719 bus1=1006353218.3.1.4 phases=1 conn=delta kv=0.22 kva=22.86 pf=1 irrad=0.84 pmpp=22.86 temperature=25 %cutin=0.1 %cutout=0.1 effcurve=MyEff p-tcurve=MyPvsT Daily=MyIrrad TDaily=MyTemp 
New PVSystem.BT99722 bus1=1004779982.1.2.4 phases=1 conn=delta kv=0.22 kva=22.86 pf=1 irrad=0.84 pmpp=22.86 temperature=25 %cutin=0.1 %cutout=0.1 effcurve=MyEff p-tcurve=MyPvsT Daily=MyIrrad TDaily=MyTemp 
New PVSystem.BT99726 bus1=1005058442.2.3.4 phases=1 conn=delta kv=0.22 kva=22.86 pf=1 irrad=0.84 pmpp=22.86 temperature=25 %cutin=0.1 %cutout=0.1 effcurve=MyEff p-tcurve=MyPvsT Daily=MyIrrad TDaily=MyTemp 
New PVSystem.BT99727 bus1=1005208424.3.1.4 phases=1 conn=delta kv=0.22 kva=22.86 pf=1 irrad=0.84 pmpp=22.86 temperature=25 %cutin=0.1 %cutout=0.1 effcurve=MyEff p-tcurve=MyPvsT Daily=MyIrrad TDaily=MyTemp 
New PVSystem.BT99728 bus1=1010141368.1.2.4 phases=1 conn=delta kv=0.22 kva=22.86 pf=1 irrad=0.84 pmpp=22.86 temperature=25 %cutin=0.1 %cutout=0.1 effcurve=MyEff p-tcurve=MyPvsT Daily=MyIrrad TDaily=MyTemp 
New PVSystem.BT99729 bus1=1010420503.1.2.4 phases=1 conn=delta kv=0.22 kva=22.86 pf=1 irrad=0.84 pmpp=22.86 temperature=25 %cutin=0.1 %cutout=0.1 effcurve=MyEff p-tcurve=MyPvsT Daily=MyIrrad TDaily=MyTemp 
New PVSystem.BT99730 bus1=1004603701.2.3.4 phases=1 conn=delta kv=0.22 kva=22.86 pf=1 irrad=0.84 pmpp=22.86 temperature=25 %cutin=0.1 %cutout=0.1 effcurve=MyEff p-tcurve=MyPvsT Daily=MyIrrad TDaily=MyTemp 
New PVSystem.BT99734 bus1=1010573077.1.2.4 phases=1 conn=delta kv=0.22 kva=22.86 pf=1 irrad=0.84 pmpp=22.86 temperature=25 %cutin=0.1 %cutout=0.1 effcurve=MyEff p-tcurve=MyPvsT Daily=MyIrrad TDaily=MyTemp 
New PVSystem.BT99735 bus1=1004423878.2.4 phases=1 conn=wye kv=0.127 kva=22.86 pf=1 irrad=0.84 pmpp=22.86 temperature=25 %cutin=0.1 %cutout=0.1 effcurve=MyEff p-tcurve=MyPvsT Daily=MyIrrad TDaily=MyTemp 
New PVSystem.BT99736 bus1=1005115289.2.3.4 phases=1 conn=delta kv=0.22 kva=22.86 pf=1 irrad=0.84 pmpp=22.86 temperature=25 %cutin=0.1 %cutout=0.1 effcurve=MyEff p-tcurve=MyPvsT Daily=MyIrrad TDaily=MyTemp 
New PVSystem.BT99737 bus1=1004381997.1.2.4 phases=1 conn=delta kv=0.22 kva=22.86 pf=1 irrad=0.84 pmpp=22.86 temperature=25 %cutin=0.1 %cutout=0.1 effcurve=MyEff p-tcurve=MyPvsT Daily=MyIrrad TDaily=MyTemp 
New PVSystem.BT99739 bus1=1005048390.2.3.4 phases=1 conn=delta kv=0.22 kva=22.86 pf=1 irrad=0.84 pmpp=22.86 temperature=25 %cutin=0.1 %cutout=0.1 effcurve=MyEff p-tcurve=MyPvsT Daily=MyIrrad TDaily=MyTemp 
New PVSystem.BT99741 bus1=1010160758.1.2.3.4 phases=3 conn=delta kv=0.22 kva=22.86 pf=1 irrad=0.84 pmpp=22.86 temperature=25 %cutin=0.1 %cutout=0.1 effcurve=MyEff p-tcurve=MyPvsT Daily=MyIrrad TDaily=MyTemp 
New PVSystem.BT99742 bus1=1010294502.2.3.4 phases=1 conn=delta kv=0.22 kva=22.86 pf=1 irrad=0.84 pmpp=22.86 temperature=25 %cutin=0.1 %cutout=0.1 effcurve=MyEff p-tcurve=MyPvsT Daily=MyIrrad TDaily=MyTemp 
New PVSystem.BT99743 bus1=1004924140.2.3.4 phases=1 conn=delta kv=0.22 kva=22.86 pf=1 irrad=0.84 pmpp=22.86 temperature=25 %cutin=0.1 %cutout=0.1 effcurve=MyEff p-tcurve=MyPvsT Daily=MyIrrad TDaily=MyTemp 
New PVSystem.BT99744 bus1=1010216298.1.2.3.4 phases=3 conn=delta kv=0.22 kva=22.86 pf=1 irrad=0.84 pmpp=22.86 temperature=25 %cutin=0.1 %cutout=0.1 effcurve=MyEff p-tcurve=MyPvsT Daily=MyIrrad TDaily=MyTemp 
New PVSystem.BT99745 bus1=1005028097.2.3.4 phases=1 conn=delta kv=0.22 kva=15.24 pf=1 irrad=0.84 pmpp=15.24 temperature=25 %cutin=0.1 %cutout=0.1 effcurve=MyEff p-tcurve=MyPvsT Daily=MyIrrad TDaily=MyTemp 
New PVSystem.BT99746 bus1=1005411634.1.2.4 phases=1 conn=delta kv=0.22 kva=22.86 pf=1 irrad=0.84 pmpp=22.86 temperature=25 %cutin=0.1 %cutout=0.1 effcurve=MyEff p-tcurve=MyPvsT Daily=MyIrrad TDaily=MyTemp 
New PVSystem.BT99747 bus1=1005520582.2.3.4 phases=1 conn=delta kv=0.22 kva=22.86 pf=1 irrad=0.84 pmpp=22.86 temperature=25 %cutin=0.1 %cutout=0.1 effcurve=MyEff p-tcurve=MyPvsT Daily=MyIrrad TDaily=MyTemp 
New PVSystem.BT99748 bus1=1010215857.1.2.4 phases=1 conn=delta kv=0.22 kva=22.86 pf=1 irrad=0.84 pmpp=22.86 temperature=25 %cutin=0.1 %cutout=0.1 effcurve=MyEff p-tcurve=MyPvsT Daily=MyIrrad TDaily=MyTemp 
New PVSystem.BT99750 bus1=1004676186.1.2.4 phases=1 conn=delta kv=0.22 kva=22.86 pf=1 irrad=0.84 pmpp=22.86 temperature=25 %cutin=0.1 %cutout=0.1 effcurve=MyEff p-tcurve=MyPvsT Daily=MyIrrad TDaily=MyTemp 
New PVSystem.BT99751 bus1=1005338253.1.2.4 phases=1 conn=delta kv=0.22 kva=22.86 pf=1 irrad=0.84 pmpp=22.86 temperature=25 %cutin=0.1 %cutout=0.1 effcurve=MyEff p-tcurve=MyPvsT Daily=MyIrrad TDaily=MyTemp 
New PVSystem.BT99756 bus1=1010404335.3.1.4 phases=1 conn=delta kv=0.22 kva=22.86 pf=1 irrad=0.84 pmpp=22.86 temperature=25 %cutin=0.1 %cutout=0.1 effcurve=MyEff p-tcurve=MyPvsT Daily=MyIrrad TDaily=MyTemp 
New PVSystem.BT99757 bus1=1005448510.1.2.4 phases=1 conn=delta kv=0.22 kva=22.86 pf=1 irrad=0.84 pmpp=22.86 temperature=25 %cutin=0.1 %cutout=0.1 effcurve=MyEff p-tcurve=MyPvsT Daily=MyIrrad TDaily=MyTemp 
New PVSystem.BT99759 bus1=1004476581.1.4 phases=1 conn=wye kv=0.127 kva=22.86 pf=1 irrad=0.84 pmpp=22.86 temperature=25 %cutin=0.1 %cutout=0.1 effcurve=MyEff p-tcurve=MyPvsT Daily=MyIrrad TDaily=MyTemp 
New PVSystem.BT99760 bus1=1005220247.2.3.4 phases=1 conn=delta kv=0.22 kva=15.24 pf=1 irrad=0.84 pmpp=15.24 temperature=25 %cutin=0.1 %cutout=0.1 effcurve=MyEff p-tcurve=MyPvsT Daily=MyIrrad TDaily=MyTemp 
New PVSystem.BT99761 bus1=1010340424.1.2.4 phases=1 conn=delta kv=0.22 kva=22.86 pf=1 irrad=0.84 pmpp=22.86 temperature=25 %cutin=0.1 %cutout=0.1 effcurve=MyEff p-tcurve=MyPvsT Daily=MyIrrad TDaily=MyTemp 
New PVSystem.BT99762 bus1=1005114134.1.2.4 phases=1 conn=delta kv=0.22 kva=22.86 pf=1 irrad=0.84 pmpp=22.86 temperature=25 %cutin=0.1 %cutout=0.1 effcurve=MyEff p-tcurve=MyPvsT Daily=MyIrrad TDaily=MyTemp 
New PVSystem.BT99763 bus1=1005331379.1.2.4 phases=1 conn=delta kv=0.22 kva=22.86 pf=1 irrad=0.84 pmpp=22.86 temperature=25 %cutin=0.1 %cutout=0.1 effcurve=MyEff p-tcurve=MyPvsT Daily=MyIrrad TDaily=MyTemp 
New PVSystem.BT99765 bus1=1004187348.1.2.4 phases=1 conn=delta kv=0.22 kva=22.86 pf=1 irrad=0.84 pmpp=22.86 temperature=25 %cutin=0.1 %cutout=0.1 effcurve=MyEff p-tcurve=MyPvsT Daily=MyIrrad TDaily=MyTemp 
New PVSystem.BT99774 bus1=1011150584.1.2.4 phases=1 conn=delta kv=0.22 kva=24.003 pf=1 irrad=0.84 pmpp=24.003 temperature=25 %cutin=0.1 %cutout=0.1 effcurve=MyEff p-tcurve=MyPvsT Daily=MyIrrad TDaily=MyTemp 
New PVSystem.BT99775 bus1=1004339668.3.1.4 phases=1 conn=delta kv=0.22 kva=22.86 pf=1 irrad=0.84 pmpp=22.86 temperature=25 %cutin=0.1 %cutout=0.1 effcurve=MyEff p-tcurve=MyPvsT Daily=MyIrrad TDaily=MyTemp 
New PVSystem.BT99776 bus1=1005344112.2.3.4 phases=1 conn=delta kv=0.22 kva=24.003 pf=1 irrad=0.84 pmpp=24.003 temperature=25 %cutin=0.1 %cutout=0.1 effcurve=MyEff p-tcurve=MyPvsT Daily=MyIrrad TDaily=MyTemp 
New PVSystem.BT99780 bus1=1010037725.2.3.4 phases=1 conn=delta kv=0.22 kva=22.86 pf=1 irrad=0.84 pmpp=22.86 temperature=25 %cutin=0.1 %cutout=0.1 effcurve=MyEff p-tcurve=MyPvsT Daily=MyIrrad TDaily=MyTemp 
New PVSystem.BT99795 bus1=1010651672.1.2.4 phases=1 conn=delta kv=0.22 kva=22.86 pf=1 irrad=0.84 pmpp=22.86 temperature=25 %cutin=0.1 %cutout=0.1 effcurve=MyEff p-tcurve=MyPvsT Daily=MyIrrad TDaily=MyTemp 
New PVSystem.BT99797 bus1=1005411641.1.2.4 phases=1 conn=delta kv=0.22 kva=22.86 pf=1 irrad=0.84 pmpp=22.86 temperature=25 %cutin=0.1 %cutout=0.1 effcurve=MyEff p-tcurve=MyPvsT Daily=MyIrrad TDaily=MyTemp 
New PVSystem.BT99812 bus1=1005012725.1.2.4 phases=1 conn=delta kv=0.22 kva=22.86 pf=1 irrad=0.84 pmpp=22.86 temperature=25 %cutin=0.1 %cutout=0.1 effcurve=MyEff p-tcurve=MyPvsT Daily=MyIrrad TDaily=MyTemp 
New PVSystem.BT99818 bus1=1005637790.1.2.4 phases=1 conn=delta kv=0.22 kva=26.67 pf=1 irrad=0.84 pmpp=26.67 temperature=25 %cutin=0.1 %cutout=0.1 effcurve=MyEff p-tcurve=MyPvsT Daily=MyIrrad TDaily=MyTemp 
New PVSystem.BT99821 bus1=1005077902.3.1.4 phases=1 conn=delta kv=0.22 kva=22.86 pf=1 irrad=0.84 pmpp=22.86 temperature=25 %cutin=0.1 %cutout=0.1 effcurve=MyEff p-tcurve=MyPvsT Daily=MyIrrad TDaily=MyTemp 
New PVSystem.BT99824 bus1=1004324534.2.4 phases=1 conn=wye kv=0.127 kva=22.86 pf=1 irrad=0.84 pmpp=22.86 temperature=25 %cutin=0.1 %cutout=0.1 effcurve=MyEff p-tcurve=MyPvsT Daily=MyIrrad TDaily=MyTemp 
New PVSystem.BT99827 bus1=1005315139.3.1.4 phases=1 conn=delta kv=0.22 kva=22.86 pf=1 irrad=0.84 pmpp=22.86 temperature=25 %cutin=0.1 %cutout=0.1 effcurve=MyEff p-tcurve=MyPvsT Daily=MyIrrad TDaily=MyTemp 
New PVSystem.BT99829 bus1=1004614173.2.3.4 phases=1 conn=delta kv=0.22 kva=22.86 pf=1 irrad=0.84 pmpp=22.86 temperature=25 %cutin=0.1 %cutout=0.1 effcurve=MyEff p-tcurve=MyPvsT Daily=MyIrrad TDaily=MyTemp 
New PVSystem.BT99830 bus1=1010081085.1.2.4 phases=1 conn=delta kv=0.22 kva=22.86 pf=1 irrad=0.84 pmpp=22.86 temperature=25 %cutin=0.1 %cutout=0.1 effcurve=MyEff p-tcurve=MyPvsT Daily=MyIrrad TDaily=MyTemp 
New PVSystem.BT99834 bus1=1004811195.3.4 phases=1 conn=wye kv=0.127 kva=22.86 pf=1 irrad=0.84 pmpp=22.86 temperature=25 %cutin=0.1 %cutout=0.1 effcurve=MyEff p-tcurve=MyPvsT Daily=MyIrrad TDaily=MyTemp 
New PVSystem.BT99835 bus1=1010359110.1.2.4 phases=1 conn=delta kv=0.22 kva=22.86 pf=1 irrad=0.84 pmpp=22.86 temperature=25 %cutin=0.1 %cutout=0.1 effcurve=MyEff p-tcurve=MyPvsT Daily=MyIrrad TDaily=MyTemp 
New PVSystem.BT99846 bus1=1004410984.1.2.4 phases=1 conn=delta kv=0.22 kva=22.86 pf=1 irrad=0.84 pmpp=22.86 temperature=25 %cutin=0.1 %cutout=0.1 effcurve=MyEff p-tcurve=MyPvsT Daily=MyIrrad TDaily=MyTemp 
New PVSystem.BT99847 bus1=1005454656.2.3.4 phases=1 conn=delta kv=0.22 kva=22.86 pf=1 irrad=0.84 pmpp=22.86 temperature=25 %cutin=0.1 %cutout=0.1 effcurve=MyEff p-tcurve=MyPvsT Daily=MyIrrad TDaily=MyTemp 
New PVSystem.BT99893 bus1=1005279068.3.1.4 phases=1 conn=delta kv=0.22 kva=22.86 pf=1 irrad=0.84 pmpp=22.86 temperature=25 %cutin=0.1 %cutout=0.1 effcurve=MyEff p-tcurve=MyPvsT Daily=MyIrrad TDaily=MyTemp 
New PVSystem.BT99894 bus1=1004549486.2.3.4 phases=1 conn=delta kv=0.22 kva=22.86 pf=1 irrad=0.84 pmpp=22.86 temperature=25 %cutin=0.1 %cutout=0.1 effcurve=MyEff p-tcurve=MyPvsT Daily=MyIrrad TDaily=MyTemp 
New PVSystem.BT99898 bus1=1004855855.1.2.4 phases=1 conn=delta kv=0.22 kva=22.86 pf=1 irrad=0.84 pmpp=22.86 temperature=25 %cutin=0.1 %cutout=0.1 effcurve=MyEff p-tcurve=MyPvsT Daily=MyIrrad TDaily=MyTemp 
New PVSystem.BT99900 bus1=1004579166.2.4 phases=1 conn=wye kv=0.127 kva=24.003 pf=1 irrad=0.84 pmpp=24.003 temperature=25 %cutin=0.1 %cutout=0.1 effcurve=MyEff p-tcurve=MyPvsT Daily=MyIrrad TDaily=MyTemp 
New PVSystem.BT99903 bus1=1010833328.1.2.4 phases=1 conn=delta kv=0.22 kva=38.1 pf=1 irrad=0.84 pmpp=38.1 temperature=25 %cutin=0.1 %cutout=0.1 effcurve=MyEff p-tcurve=MyPvsT Daily=MyIrrad TDaily=MyTemp 
New PVSystem.BT99906 bus1=1010969021.2.3.4 phases=1 conn=delta kv=0.22 kva=24.003 pf=1 irrad=0.84 pmpp=24.003 temperature=25 %cutin=0.1 %cutout=0.1 effcurve=MyEff p-tcurve=MyPvsT Daily=MyIrrad TDaily=MyTemp 
New PVSystem.BT99907 bus1=1004675325.3.1.4 phases=1 conn=delta kv=0.22 kva=22.86 pf=1 irrad=0.84 pmpp=22.86 temperature=25 %cutin=0.1 %cutout=0.1 effcurve=MyEff p-tcurve=MyPvsT Daily=MyIrrad TDaily=MyTemp 
New PVSystem.BT99926 bus1=1004312914.2.3.4 phases=1 conn=delta kv=0.22 kva=22.86 pf=1 irrad=0.84 pmpp=22.86 temperature=25 %cutin=0.1 %cutout=0.1 effcurve=MyEff p-tcurve=MyPvsT Daily=MyIrrad TDaily=MyTemp 
New PVSystem.BT99955 bus1=1004329735.3.4 phases=1 conn=wye kv=0.127 kva=24.003 pf=1 irrad=0.84 pmpp=24.003 temperature=25 %cutin=0.1 %cutout=0.1 effcurve=MyEff p-tcurve=MyPvsT Daily=MyIrrad TDaily=MyTemp 
New PVSystem.BT99956 bus1=1004332885.1.4 phases=1 conn=wye kv=0.127 kva=24.003 pf=1 irrad=0.84 pmpp=24.003 temperature=25 %cutin=0.1 %cutout=0.1 effcurve=MyEff p-tcurve=MyPvsT Daily=MyIrrad TDaily=MyTemp 
New PVSystem.BT100082 bus1=1004315882.1.4 phases=1 conn=wye kv=0.127 kva=24.003 pf=1 irrad=0.84 pmpp=24.003 temperature=25 %cutin=0.1 %cutout=0.1 effcurve=MyEff p-tcurve=MyPvsT Daily=MyIrrad TDaily=MyTemp 
New PVSystem.BT100086 bus1=1005444961.3.1.4 phases=1 conn=delta kv=0.22 kva=22.86 pf=1 irrad=0.84 pmpp=22.86 temperature=25 %cutin=0.1 %cutout=0.1 effcurve=MyEff p-tcurve=MyPvsT Daily=MyIrrad TDaily=MyTemp 
New PVSystem.BT100120 bus1=1005207339.3.1.4 phases=1 conn=delta kv=0.22 kva=22.86 pf=1 irrad=0.84 pmpp=22.86 temperature=25 %cutin=0.1 %cutout=0.1 effcurve=MyEff p-tcurve=MyPvsT Daily=MyIrrad TDaily=MyTemp 
...
